# generated using pymatgen
data_KI
_symmetry_space_group_name_H-M   'P 1'
_cell_length_a   4.92267536
_cell_length_b   8.60005528
_cell_length_c   8.42596292
_cell_angle_alpha   90.00000000
_cell_angle_beta   90.00000000
_cell_angle_gamma   90.00000000
_symmetry_Int_Tables_number   1
_chemical_formula_structural   KI
_chemical_formula_sum   'K4 I4'
_cell_volume   356.71550135
_cell_formula_units_Z   4
loop_
 _symmetry_equiv_pos_site_id
 _symmetry_equiv_pos_as_xyz
  1  'x, y, z'
loop_
 _atom_site_type_symbol
 _atom_site_label
 _atom_site_symmetry_multiplicity
 _atom_site_fract_x
 _atom_site_fract_y
 _atom_site_fract_z
 _atom_site_occupancy
  K  K0  1  0.25000000  0.49983278  0.75067522  1
  K  K1  1  0.25000000  0.99983278  0.74932478  1
  K  K2  1  0.75000000  0.50016722  0.24932478  1
  K  K3  1  0.75000000  0.00016722  0.25067522  1
  I  I4  1  0.25000000  0.75004936  0.41428777  1
  I  I5  1  0.25000000  0.25004936  0.08571223  1
  I  I6  1  0.75000000  0.24995064  0.58571223  1
  I  I7  1  0.75000000  0.74995064  0.91428777  1
