# generated using pymatgen
data_Er5Mg24
_symmetry_space_group_name_H-M   'P 1'
_cell_length_a   9.67206519
_cell_length_b   9.67207221
_cell_length_c   9.67207221
_cell_angle_alpha   109.47125004
_cell_angle_beta   109.47122063
_cell_angle_gamma   109.47122063
_symmetry_Int_Tables_number   1
_chemical_formula_structural   Er5Mg24
_chemical_formula_sum   'Er5 Mg24'
_cell_volume   696.52422817
_cell_formula_units_Z   1
loop_
 _symmetry_equiv_pos_site_id
 _symmetry_equiv_pos_as_xyz
  1  'x, y, z'
loop_
 _atom_site_type_symbol
 _atom_site_label
 _atom_site_symmetry_multiplicity
 _atom_site_fract_x
 _atom_site_fract_y
 _atom_site_fract_z
 _atom_site_occupancy
  Er  Er0  1  -0.00000000  0.37281177  -0.00000000  1
  Er  Er1  1  0.37281277  -0.00000000  -0.00000000  1
  Er  Er2  1  -0.00000000  -0.00000000  0.37281177  1
  Er  Er3  1  0.62718723  0.62718723  0.62718823  1
  Er  Er4  1  0.00000000  0.00000000  0.00000000  1
  Mg  Mg5  1  0.19037665  0.82070696  0.19037665  1
  Mg  Mg6  1  0.17929304  0.36966969  0.36966969  1
  Mg  Mg7  1  0.36966969  0.36966969  0.17929304  1
  Mg  Mg8  1  0.63033031  0.80962335  0.00000000  1
  Mg  Mg9  1  -0.00000000  0.80962235  0.63033031  1
  Mg  Mg10  1  0.38931093  0.71279016  0.38931093  1
  Mg  Mg11  1  0.32347922  0.00000000  0.61068907  1
  Mg  Mg12  1  0.61068907  0.00000000  0.32347922  1
  Mg  Mg13  1  0.32347922  0.61068907  0.00000000  1
  Mg  Mg14  1  0.67652078  0.67652078  0.28720984  1
  Mg  Mg15  1  0.28720984  0.67652078  0.67652078  1
  Mg  Mg16  1  0.00000000  0.61068907  0.32347922  1
  Mg  Mg17  1  0.00000000  0.32347922  0.61068907  1
  Mg  Mg18  1  0.61068907  0.32347922  0.00000000  1
  Mg  Mg19  1  0.38931093  0.38931093  0.71279016  1
  Mg  Mg20  1  0.71279016  0.38931093  0.38931093  1
  Mg  Mg21  1  0.67652078  0.28720984  0.67652078  1
  Mg  Mg22  1  0.36966969  0.17929304  0.36966969  1
  Mg  Mg23  1  0.80962235  0.00000000  0.63033031  1
  Mg  Mg24  1  0.63033031  0.00000000  0.80962335  1
  Mg  Mg25  1  0.80962335  0.63033031  0.00000000  1
  Mg  Mg26  1  0.19037765  0.19037765  0.82070696  1
  Mg  Mg27  1  0.82070696  0.19037665  0.19037665  1
  Mg  Mg28  1  0.00000000  0.63033031  0.80962335  1
