# generated using pymatgen
data_LuMg3
_symmetry_space_group_name_H-M   'P 1'
_cell_length_a   6.55262967
_cell_length_b   6.55262993
_cell_length_c   5.16998467
_cell_angle_alpha   90.00001029
_cell_angle_beta   89.99998875
_cell_angle_gamma   120.00370310
_symmetry_Int_Tables_number   1
_chemical_formula_structural   LuMg3
_chemical_formula_sum   'Lu2 Mg6'
_cell_volume   192.23609945
_cell_formula_units_Z   2
loop_
 _symmetry_equiv_pos_site_id
 _symmetry_equiv_pos_as_xyz
  1  'x, y, z'
loop_
 _atom_site_type_symbol
 _atom_site_label
 _atom_site_symmetry_multiplicity
 _atom_site_fract_x
 _atom_site_fract_y
 _atom_site_fract_z
 _atom_site_occupancy
  Lu  Lu0  1  0.66666352  0.33333619  0.25000368  1
  Lu  Lu1  1  0.33333677  0.66666453  0.74999513  1
  Mg  Mg2  1  0.16450353  0.32905101  0.24999544  1
  Mg  Mg3  1  0.16455389  0.83544796  0.24999545  1
  Mg  Mg4  1  0.67095017  0.83549715  0.24999509  1
  Mg  Mg5  1  0.32904897  0.16450354  0.75000387  1
  Mg  Mg6  1  0.83544720  0.16455326  0.75000365  1
  Mg  Mg7  1  0.83549695  0.67094834  0.75000369  1
