# generated using pymatgen
data_Mg4Zn7
_symmetry_space_group_name_H-M   'P 1'
_cell_length_a   13.15153151
_cell_length_b   13.15153151
_cell_length_c   14.14062752
_cell_angle_alpha   77.68749914
_cell_angle_beta   77.68749914
_cell_angle_gamma   23.19028142
_symmetry_Int_Tables_number   1
_chemical_formula_structural   Mg4Zn7
_chemical_formula_sum   'Mg20 Zn35'
_cell_volume   940.02589769
_cell_formula_units_Z   5
loop_
 _symmetry_equiv_pos_site_id
 _symmetry_equiv_pos_as_xyz
  1  'x, y, z'
loop_
 _atom_site_type_symbol
 _atom_site_label
 _atom_site_symmetry_multiplicity
 _atom_site_fract_x
 _atom_site_fract_y
 _atom_site_fract_z
 _atom_site_occupancy
  Mg  Mg0  1  0.12736900  0.12736900  0.89754100  1
  Mg  Mg1  1  0.96568500  0.96568500  0.71275000  1
  Mg  Mg2  1  0.69636700  0.69636700  0.35029400  1
  Mg  Mg3  1  0.55946300  0.55946300  0.95097000  1
  Mg  Mg4  1  0.51768100  0.51768100  0.60068800  1
  Mg  Mg5  1  0.21565300  0.21565300  0.02425100  1
  Mg  Mg6  1  0.64276800  0.64276800  0.57240600  1
  Mg  Mg7  1  0.44053700  0.44053700  0.04903000  1
  Mg  Mg8  1  0.17874000  0.17874000  0.67480200  1
  Mg  Mg9  1  0.48231900  0.48231900  0.39931200  1
  Mg  Mg10  1  0.30363300  0.30363300  0.64970600  1
  Mg  Mg11  1  0.82126000  0.82126000  0.32519800  1
  Mg  Mg12  1  0.99428000  0.99428000  0.90274200  1
  Mg  Mg13  1  0.16306900  0.16306900  0.25142000  1
  Mg  Mg14  1  0.83693100  0.83693100  0.74858000  1
  Mg  Mg15  1  0.35723200  0.35723200  0.42759400  1
  Mg  Mg16  1  0.87263100  0.87263100  0.10245900  1
  Mg  Mg17  1  0.78434700  0.78434700  0.97574900  1
  Mg  Mg18  1  0.03431500  0.03431500  0.28725000  1
  Mg  Mg19  1  0.00572000  0.00572000  0.09725800  1
  Zn  Zn20  1  0.07878500  0.07878500  0.59170500  1
  Zn  Zn21  1  0.48264700  0.48264700  0.81982800  1
  Zn  Zn22  1  0.74253300  0.74253300  0.66074000  1
  Zn  Zn23  1  0.17751100  0.68743000  0.24396100  1
  Zn  Zn24  1  0.65794600  0.17004300  0.57067900  1
  Zn  Zn25  1  0.31257000  0.82248900  0.75603900  1
  Zn  Zn26  1  0.50191900  0.00212900  0.49811700  1
  Zn  Zn27  1  0.92121500  0.92121500  0.40829500  1
  Zn  Zn28  1  0.31262600  0.31262600  0.85860300  1
  Zn  Zn29  1  0.82995700  0.34205400  0.42932100  1
  Zn  Zn30  1  0.47709500  0.98960900  0.82450500  1
  Zn  Zn31  1  0.67071100  0.67071100  0.96297800  1
  Zn  Zn32  1  0.16961400  0.16961400  0.46566400  1
  Zn  Zn33  1  0.59915700  0.59915700  0.26680600  1
  Zn  Zn34  1  0.51735300  0.51735300  0.18017200  1
  Zn  Zn35  1  0.68737400  0.68737400  0.14139700  1
  Zn  Zn36  1  0.87057500  0.34488500  0.10064900  1
  Zn  Zn37  1  0.17004300  0.65794600  0.57067900  1
  Zn  Zn38  1  0.68743000  0.17751100  0.24396100  1
  Zn  Zn39  1  0.83038600  0.83038600  0.53433600  1
  Zn  Zn40  1  0.12942500  0.65511500  0.89935100  1
  Zn  Zn41  1  0.34205400  0.82995700  0.42932100  1
  Zn  Zn42  1  0.99787100  0.49808100  0.50188300  1
  Zn  Zn43  1  0.65100000  0.65100000  0.78536900  1
  Zn  Zn44  1  0.98960900  0.47709500  0.82450500  1
  Zn  Zn45  1  0.34488500  0.87057500  0.10064900  1
  Zn  Zn46  1  0.34900000  0.34900000  0.21463100  1
  Zn  Zn47  1  0.65511500  0.12942500  0.89935100  1
  Zn  Zn48  1  0.40084300  0.40084300  0.73319400  1
  Zn  Zn49  1  0.01039100  0.52290500  0.17549500  1
  Zn  Zn50  1  0.82248900  0.31257000  0.75603900  1
  Zn  Zn51  1  0.00000000  0.00000000  0.50000000  1
  Zn  Zn52  1  0.52290500  0.01039100  0.17549500  1
  Zn  Zn53  1  0.32928900  0.32928900  0.03702200  1
  Zn  Zn54  1  0.25746700  0.25746700  0.33926000  1
