# generated using pymatgen
data_MgAg3
_symmetry_space_group_name_H-M   'P 1'
_cell_length_a   5.79715843
_cell_length_b   5.79715851
_cell_length_c   4.79913120
_cell_angle_alpha   90.00000000
_cell_angle_beta   90.00000000
_cell_angle_gamma   120.00000555
_symmetry_Int_Tables_number   1
_chemical_formula_structural   MgAg3
_chemical_formula_sum   'Mg2 Ag6'
_cell_volume   139.67657420
_cell_formula_units_Z   2
loop_
 _symmetry_equiv_pos_site_id
 _symmetry_equiv_pos_as_xyz
  1  'x, y, z'
loop_
 _atom_site_type_symbol
 _atom_site_label
 _atom_site_symmetry_multiplicity
 _atom_site_fract_x
 _atom_site_fract_y
 _atom_site_fract_z
 _atom_site_occupancy
  Mg  Mg0  1  0.66666700  0.33333400  0.25000000  1
  Mg  Mg1  1  0.33333400  0.66666700  0.75000100  1
  Ag  Ag2  1  0.16631317  0.33262534  0.25000000  1
  Ag  Ag3  1  0.66737466  0.83368783  0.25000000  1
  Ag  Ag4  1  0.16631417  0.83368783  0.25000000  1
  Ag  Ag5  1  0.83368783  0.16631317  0.75000100  1
  Ag  Ag6  1  0.33262534  0.16631317  0.75000100  1
  Ag  Ag7  1  0.83368683  0.66737566  0.75000100  1
