# generated using pymatgen
data_MgCd
_symmetry_space_group_name_H-M   'P 1'
_cell_length_a   3.24261455
_cell_length_b   8.07499956
_cell_length_c   4.92264423
_cell_angle_alpha   90.00000000
_cell_angle_beta   90.00000000
_cell_angle_gamma   78.41736453
_symmetry_Int_Tables_number   1
_chemical_formula_structural   MgCd
_chemical_formula_sum   'Mg3 Cd3'
_cell_volume   126.27026287
_cell_formula_units_Z   3
loop_
 _symmetry_equiv_pos_site_id
 _symmetry_equiv_pos_as_xyz
  1  'x, y, z'
loop_
 _atom_site_type_symbol
 _atom_site_label
 _atom_site_symmetry_multiplicity
 _atom_site_fract_x
 _atom_site_fract_y
 _atom_site_fract_z
 _atom_site_occupancy
  Mg  Mg0  1  0.99431608  0.01136984  -0.00000000  1
  Mg  Mg1  1  0.66553126  0.66894047  0.00000000  1
  Mg  Mg2  1  0.78247248  0.43505705  0.50000000  1
  Cd  Cd3  1  0.33086871  0.33826359  -0.00000000  1
  Cd  Cd4  1  0.44666981  0.10666039  0.50000000  1
  Cd  Cd5  1  0.11347967  0.77304166  0.50000000  1
