# generated using pymatgen
data_Sr6Mg23
_symmetry_space_group_name_H-M   'P 1'
_cell_length_a   10.50909801
_cell_length_b   10.50909711
_cell_length_c   10.50909749
_cell_angle_alpha   59.99985776
_cell_angle_beta   59.99985592
_cell_angle_gamma   59.99985936
_symmetry_Int_Tables_number   1
_chemical_formula_structural   Sr6Mg23
_chemical_formula_sum   'Sr6 Mg23'
_cell_volume   820.69137547
_cell_formula_units_Z   1
loop_
 _symmetry_equiv_pos_site_id
 _symmetry_equiv_pos_as_xyz
  1  'x, y, z'
loop_
 _atom_site_type_symbol
 _atom_site_label
 _atom_site_symmetry_multiplicity
 _atom_site_fract_x
 _atom_site_fract_y
 _atom_site_fract_z
 _atom_site_occupancy
  Sr  Sr0  1  0.79321712  0.20678288  0.20678288  1
  Sr  Sr1  1  0.79321712  0.79321712  0.20678288  1
  Sr  Sr2  1  0.20678288  0.20678288  0.79321712  1
  Sr  Sr3  1  0.79321712  0.20678288  0.79321712  1
  Sr  Sr4  1  0.20678288  0.79321712  0.20678288  1
  Sr  Sr5  1  0.20678288  0.79321712  0.79321712  1
  Mg  Mg6  1  0.50000000  0.50000000  0.50000000  1
  Mg  Mg7  1  0.50000000  -0.00000000  0.00000000  1
  Mg  Mg8  1  0.00000000  -0.00000000  0.50000000  1
  Mg  Mg9  1  0.50000000  0.50000000  0.00000000  1
  Mg  Mg10  1  0.00000000  0.50000000  0.50000000  1
  Mg  Mg11  1  0.00000000  0.50000000  0.00000000  1
  Mg  Mg12  1  0.50000000  -0.00000000  0.50000000  1
  Mg  Mg13  1  0.37777367  0.37777367  0.37777367  1
  Mg  Mg14  1  0.62222533  0.62222533  0.13332402  1
  Mg  Mg15  1  0.13332402  0.62222533  0.62222533  1
  Mg  Mg16  1  0.62222533  0.13332402  0.62222533  1
  Mg  Mg17  1  0.86667598  0.37777467  0.37777467  1
  Mg  Mg18  1  0.37777467  0.86667598  0.37777467  1
  Mg  Mg19  1  0.37777467  0.37777467  0.86667598  1
  Mg  Mg20  1  0.62222633  0.62222633  0.62222633  1
  Mg  Mg21  1  0.17455460  0.17455460  0.17455460  1
  Mg  Mg22  1  0.82544540  0.82544440  0.52366781  1
  Mg  Mg23  1  0.52366781  0.82544540  0.82544540  1
  Mg  Mg24  1  0.82544540  0.52366781  0.82544440  1
  Mg  Mg25  1  0.47633219  0.17455460  0.17455460  1
  Mg  Mg26  1  0.17455460  0.47633219  0.17455460  1
  Mg  Mg27  1  0.17455460  0.17455460  0.47633219  1
  Mg  Mg28  1  0.82544540  0.82544540  0.82544540  1
