# generated using pymatgen
data_Y5Mg24
_symmetry_space_group_name_H-M   'P 1'
_cell_length_a   9.73093289
_cell_length_b   9.73094288
_cell_length_c   9.73094347
_cell_angle_alpha   109.47126470
_cell_angle_beta   109.47122304
_cell_angle_gamma   109.47122066
_symmetry_Int_Tables_number   1
_chemical_formula_structural   Y5Mg24
_chemical_formula_sum   'Y5 Mg24'
_cell_volume   709.32000777
_cell_formula_units_Z   1
loop_
 _symmetry_equiv_pos_site_id
 _symmetry_equiv_pos_as_xyz
  1  'x, y, z'
loop_
 _atom_site_type_symbol
 _atom_site_label
 _atom_site_symmetry_multiplicity
 _atom_site_fract_x
 _atom_site_fract_y
 _atom_site_fract_z
 _atom_site_occupancy
  Y  Y0  1  -0.00000000  0.37627332  -0.00000000  1
  Y  Y1  1  0.37627232  -0.00000000  -0.00000000  1
  Y  Y2  1  -0.00000000  -0.00000000  0.37627332  1
  Y  Y3  1  0.62372768  0.62372768  0.62372668  1
  Y  Y4  1  0.00000000  -0.00000000  0.00000000  1
  Mg  Mg5  1  0.19035541  0.82114957  0.19035541  1
  Mg  Mg6  1  0.17884943  0.36920484  0.36920384  1
  Mg  Mg7  1  0.36920384  0.36920384  0.17884943  1
  Mg  Mg8  1  0.63079516  0.80964459  0.00000000  1
  Mg  Mg9  1  0.00000000  0.80964459  0.63079616  1
  Mg  Mg10  1  0.38694310  0.71353625  0.38694310  1
  Mg  Mg11  1  0.32659515  0.00000000  0.61305790  1
  Mg  Mg12  1  0.61305690  0.00000000  0.32659515  1
  Mg  Mg13  1  0.32659415  0.61305690  0.00000000  1
  Mg  Mg14  1  0.67340485  0.67340485  0.28646375  1
  Mg  Mg15  1  0.28646375  0.67340485  0.67340485  1
  Mg  Mg16  1  0.00000000  0.61305690  0.32659415  1
  Mg  Mg17  1  0.00000000  0.32659515  0.61305790  1
  Mg  Mg18  1  0.61305690  0.32659515  0.00000000  1
  Mg  Mg19  1  0.38694310  0.38694310  0.71353725  1
  Mg  Mg20  1  0.71353625  0.38694310  0.38694310  1
  Mg  Mg21  1  0.67340585  0.28646375  0.67340585  1
  Mg  Mg22  1  0.36920484  0.17885043  0.36920384  1
  Mg  Mg23  1  0.80964459  0.00000000  0.63079616  1
  Mg  Mg24  1  0.63079616  0.00000000  0.80964459  1
  Mg  Mg25  1  0.80964459  0.63079516  0.00000000  1
  Mg  Mg26  1  0.19035541  0.19035541  0.82115057  1
  Mg  Mg27  1  0.82115057  0.19035541  0.19035541  1
  Mg  Mg28  1  0.00000000  0.63079516  0.80964459  1
